Version 4
SHEET 1 1400 732
WIRE 1184 16 1072 16
WIRE -48 48 -160 48
WIRE 1184 48 1184 16
WIRE 144 80 112 80
WIRE 160 80 144 80
WIRE 256 80 240 80
WIRE 272 80 256 80
WIRE 368 80 352 80
WIRE 144 96 144 80
WIRE 1072 96 1072 16
WIRE -48 112 -80 112
WIRE 512 160 512 144
WIRE 528 160 512 160
WIRE 624 160 608 160
WIRE 688 160 624 160
WIRE 832 160 768 160
WIRE 1184 160 1184 128
WIRE 512 176 512 160
WIRE -80 192 -80 112
WIRE 48 192 -80 192
WIRE 144 192 144 176
WIRE 144 192 48 192
WIRE -160 208 -160 48
WIRE 48 208 48 192
WIRE 144 208 144 192
WIRE 256 208 256 80
WIRE 288 208 256 208
WIRE 464 240 448 240
WIRE 1072 256 1072 176
WIRE 1184 256 1184 224
WIRE 1184 256 1072 256
WIRE 288 272 256 272
WIRE 624 272 624 160
WIRE 656 272 624 272
WIRE 48 304 48 288
WIRE 48 304 -80 304
WIRE 144 304 144 288
WIRE 144 304 48 304
WIRE 832 304 832 160
WIRE 832 304 816 304
WIRE 896 304 832 304
WIRE 1008 304 976 304
WIRE 144 320 144 304
WIRE 656 336 640 336
WIRE -80 384 -80 304
WIRE -48 384 -80 384
WIRE 144 416 144 400
WIRE 144 416 112 416
WIRE 160 416 144 416
WIRE 256 416 256 272
WIRE 256 416 240 416
WIRE 272 416 256 416
WIRE 464 416 464 240
WIRE 464 416 352 416
WIRE 528 416 464 416
WIRE 640 416 640 336
WIRE 640 416 608 416
WIRE 1072 416 1072 352
WIRE -304 448 -304 400
WIRE -160 448 -160 288
WIRE -160 448 -304 448
WIRE -48 448 -160 448
WIRE -304 464 -304 448
WIRE 80 608 0 608
WIRE 592 608 576 608
WIRE 608 608 592 608
FLAG 368 80 Vr
FLAG 16 464 Vcc
FLAG 16 32 Vcc
FLAG 352 192 Vcc
FLAG 352 288 -Vcc
FLAG 16 368 -Vcc
FLAG 16 128 -Vcc
FLAG 0 608 -Vcc
FLAG 720 256 Vcc
FLAG 720 352 -Vcc
FLAG 512 64 Vcc
FLAG 512 256 0
FLAG 1072 416 0
FLAG 1072 16 Vcc
FLAG 80 608 0
FLAG 256 608 0
FLAG 336 608 Vcc
FLAG 496 608 Vcc
FLAG 688 608 0
FLAG 592 608 Vr
FLAG -304 544 0
FLAG -304 320 Vcc
FLAG 464 240 Vout
SYMBOL res 128 80 R0
WINDOW 0 33 50 Left 2
SYMATTR InstName R_1
SYMATTR Value 560k
SYMBOL res 128 192 R0
SYMATTR InstName RA1
SYMATTR Value 470
SYMBOL res 128 304 R0
SYMATTR InstName R_2
SYMATTR Value 560k
SYMBOL res 256 64 R90
WINDOW 0 -31 58 VBottom 2
WINDOW 3 -34 75 VTop 2
SYMATTR InstName R1_1
SYMATTR Value 330k
SYMBOL res 368 64 R90
WINDOW 0 -33 54 VBottom 2
WINDOW 3 -37 69 VTop 2
SYMATTR InstName R2_1
SYMATTR Value 330k
SYMBOL res 256 400 R90
WINDOW 0 90 54 VBottom 2
WINDOW 3 32 56 VTop 2
SYMATTR InstName R1_2
SYMATTR Value 330k
SYMBOL res 368 400 R90
WINDOW 0 87 55 VBottom 2
WINDOW 3 32 56 VTop 2
SYMATTR InstName R2_2
SYMATTR Value 330k
SYMBOL res 624 400 R90
WINDOW 0 -36 55 VBottom 2
WINDOW 3 -39 76 VTop 2
SYMATTR InstName R1
SYMATTR Value 10k
SYMBOL res 784 144 R90
WINDOW 0 -25 56 VBottom 2
WINDOW 3 -29 64 VTop 2
SYMATTR InstName R5
SYMATTR Value 10Meg
SYMBOL res 496 160 R0
WINDOW 3 36 66 Left 2
SYMATTR Value 12k
SYMATTR InstName R6
SYMBOL res 496 48 R0
WINDOW 0 -32 37 Left 2
WINDOW 3 -29 70 Left 2
SYMATTR InstName R7
SYMATTR Value 10k
SYMBOL res 624 144 R90
WINDOW 0 -28 56 VBottom 2
WINDOW 3 -31 72 VTop 2
SYMATTR InstName R8
SYMATTR Value 10k
SYMBOL res 992 288 R90
WINDOW 0 -29 59 VBottom 2
WINDOW 3 -34 75 VTop 2
SYMATTR InstName R2
SYMATTR Value 100k
SYMBOL res 1168 32 R0
SYMATTR InstName RLED
SYMATTR Value 1800
SYMBOL npn 1008 256 R0
WINDOW 3 57 60 Left 2
SYMATTR Value BC238
SYMATTR InstName Q1
SYMBOL LED 1168 160 R0
SYMATTR InstName D1
SYMBOL res 1056 80 R0
SYMATTR InstName RL
SYMATTR Value 330
SYMBOL voltage 352 608 R90
WINDOW 0 -32 56 VBottom 2
WINDOW 3 32 56 VTop 2
WINDOW 123 0 0 Left 0
WINDOW 39 0 0 Left 0
SYMATTR InstName V1
SYMATTR Value 18
SYMBOL voltage -160 192 R0
WINDOW 123 0 0 Left 0
WINDOW 39 0 0 Left 0
SYMATTR InstName V2
SYMATTR Value 0
SYMBOL res 592 592 R90
WINDOW 0 0 56 VBottom 2
WINDOW 3 32 56 VTop 2
SYMATTR InstName R4
SYMATTR Value 12k
SYMBOL res 704 592 R90
WINDOW 0 0 56 VBottom 2
WINDOW 3 32 56 VTop 2
SYMATTR InstName R3
SYMATTR Value 4.6k
SYMBOL res -320 304 R0
SYMATTR InstName R10
SYMATTR Value 100k
SYMBOL res -320 448 R0
SYMATTR InstName R11
SYMATTR Value 82k
SYMBOL opamp2Offset 32 416 M180
WINDOW 0 20 13 Bottom 2
SYMATTR InstName X1
SYMBOL opamp2Offset 368 240 R0
WINDOW 0 17 15 Bottom 2
SYMATTR InstName X2
SYMBOL opamp2Offset 736 304 R0
WINDOW 0 19 13 Bottom 2
SYMATTR InstName X3
SYMBOL opamp2Offset4 32 80 R0
WINDOW 0 14 11 Bottom 2
SYMATTR InstName X4
SYMBOL res 32 192 R0
SYMATTR InstName R9
SYMATTR Value 470
TEXT -48 -96 Left 2 !.lib LM324.txt
TEXT -48 -32 Left 2 !.dc V2 0 0.002 0.0001
TEXT -48 -64 Left 2 !.lib BC238.txt
